lig
 OpenBabel04102317533D

  9  8  0  0  0  0  0  0  0  0999 V2000
    1.3363   -0.5166   -0.4467 C   0  0  0  0  0  0  0  0  0  0  0  0
   -0.0348   -0.1671   -0.0866 C   0  0  0  0  0  0  0  0  0  0  0  0
   -0.3130    1.0035    0.2522 O   0  0  0  0  0  0  0  0  0  0  0  0
   -0.9949   -1.1013   -0.1192 N   0  0  0  0  0  0  0  0  0  0  0  0
    1.9947   -0.3240    0.4003 H   0  0  0  0  0  0  0  0  0  0  0  0
    1.3844   -1.5728   -0.7116 H   0  0  0  0  0  0  0  0  0  0  0  0
    1.6533    0.0863   -1.2977 H   0  0  0  0  0  0  0  0  0  0  0  0
   -1.9058   -0.8692    0.1200 H   0  0  0  0  0  0  0  0  0  0  0  0
   -0.7790   -2.0097   -0.3821 H   0  0  0  0  0  0  0  0  0  0  0  0
  1  2  1  0  0  0  0
  1  5  1  0  0  0  0
  1  6  1  0  0  0  0
  1  7  1  0  0  0  0
  2  3  2  0  0  0  0
  2  4  1  0  0  0  0
  4  8  1  0  0  0  0
  4  9  1  0  0  0  0
M  END
